16

C      1.925518   -0.419950   -0.480357
C      0.866382    0.378340    0.280005
C     -0.571267    0.038254   -0.165502
N     -0.925629   -1.326456    0.235750
C     -1.557129    1.033759    0.459558
H      1.877878   -1.495243   -0.210443
H      1.787374   -0.304978   -1.576458
H      2.934814   -0.043199   -0.211063
H      0.979993    0.190451    1.370254
H      1.062252    1.458081    0.098342
H     -0.646167    0.132274   -1.273178
H     -0.382843   -1.997760   -0.353363
H     -1.927897   -1.498060   -0.010407
H     -1.528479    0.964950    1.568316
H     -1.304252    2.071663    0.154384
H     -2.590548    0.817872    0.114163
