20

C      2.034570   -1.317732   -0.070329
C      1.429891    0.007536   -0.539024
C      0.120329    0.375630    0.203899
C     -0.198726    1.863389   -0.044838
N     -0.997142   -0.495106   -0.233939
C     -2.200950   -0.334278    0.595154
O     -3.126947   -1.331746    0.281531
H      1.415024   -2.178536   -0.394067
H      2.139953   -1.329911    1.035239
H      3.042974   -1.440129   -0.519107
H      1.247052   -0.037749   -1.634844
H      2.193751    0.795898   -0.359521
H      0.295669    0.246759    1.296632
H      0.677317    2.497115    0.210291
H     -0.463966    2.034257   -1.110022
H     -1.035445    2.202376    0.599069
H     -1.239103   -0.296213   -1.233387
H     -0.706545   -1.496559   -0.163147
H     -1.948635   -0.414406    1.675095
H     -2.679072    0.649408    0.405314
