23

C      1.626914   -1.115756    0.966486
C      1.376222   -0.333684   -0.336455
C      1.885152    1.112081   -0.238086
N     -0.018201   -0.461389   -0.848190
C     -1.095002    0.403630   -0.285932
C     -1.248210    0.254737    1.238308
C     -2.434031    0.022935   -0.946706
O     -0.849390    1.746381   -0.592476
H      2.718508   -1.279177    1.094718
H      1.276548   -0.569625    1.861922
H      1.138936   -2.112356    0.930203
H      2.035087   -0.824808   -1.090515
H      2.980362    1.111112   -0.051127
H      1.401410    1.659082    0.596263
H      1.703896    1.648252   -1.193541
H      0.023426   -0.272401   -1.878427
H     -0.308270   -1.464295   -0.761669
H     -1.237062   -0.816383    1.532281
H     -2.207716    0.698756    1.581058
H     -0.449816    0.804687    1.773213
H     -3.248622    0.694744   -0.599264
H     -2.709386   -1.025427   -0.700838
H     -2.360753    0.118904   -2.051224
