 xtb: 6.6.0 (2ccbbd7)
          06142314043D

 10  9  0     0  0            999 V2000
   -1.2674    0.1644   -0.0163 C   0  0  0  0  0  0  0  0  0  0  0  0
    0.0225   -0.5065   -0.4215 C   0  0  0  0  0  0  0  0  0  0  0  0
    1.2565    0.0800    0.2197 C   0  0  0  0  0  0  0  0  0  0  0  0
    0.0635   -1.4310   -1.1908 O   0  0  0  0  0  0  0  0  0  0  0  0
   -1.2334    1.2185   -0.2826 H   0  0  0  0  0  0  0  0  0  0  0  0
   -1.3967    0.0929    1.0614 H   0  0  0  0  0  0  0  0  0  0  0  0
   -2.1099   -0.3078   -0.5141 H   0  0  0  0  0  0  0  0  0  0  0  0
    1.3422    1.1325   -0.0417 H   0  0  0  0  0  0  0  0  0  0  0  0
    2.1436   -0.4499   -0.1164 H   0  0  0  0  0  0  0  0  0  0  0  0
    1.1789    0.0068    1.3023 H   0  0  0  0  0  0  0  0  0  0  0  0
  1  2  1  0  0  0  0
  2  3  1  0  0  0  0
  2  4  2  0  0  0  0
  1  5  1  0  0  0  0
  1  6  1  0  0  0  0
  1  7  1  0  0  0  0
  3  8  1  0  0  0  0
  3  9  1  0  0  0  0
  3 10  1  0  0  0  0
M  END
