10

C      1.306580   -0.173204    0.048706
C      0.007214    0.510952   -0.257742
C     -1.310615   -0.112654    0.095491
O      0.022605    1.601171   -0.807689
H      1.143021   -1.151656    0.546697
H      1.866847   -0.344632   -0.894242
H      1.914525    0.468930    0.719904
H     -1.174781   -1.098034    0.588128
H     -1.863860    0.556344    0.787448
H     -1.911535   -0.257217   -0.826700
