13

C     -0.431338   -1.156555   -0.466980
C      0.258183   -0.070977    0.370330
N      1.483151    0.396562   -0.281408
C     -0.683391    1.110361    0.613312
H      0.257356   -2.014657   -0.618308
H     -1.337633   -1.526481    0.058305
H     -0.729467   -0.756593   -1.459856
H      0.525409   -0.507019    1.358528
H      2.150059   -0.406003   -0.355643
H      1.261167    0.708921   -1.255309
H     -0.173023    1.878286    1.232737
H     -0.987930    1.572563   -0.350255
H     -1.592543    0.771590    1.154548
