13

C      1.233396   -0.632961   -0.392645
C      0.204819    0.237234    0.332579
N      0.057748    1.516683   -0.364043
C     -1.143289   -0.487499    0.443824
H      1.388803   -1.584395    0.159516
H      2.205665   -0.098885   -0.450335
H      0.891345   -0.865666   -1.423997
H      0.583463    0.433452    1.360298
H     -0.577747    2.131229    0.195302
H     -0.399717    1.356744   -1.291660
H     -1.550336   -0.716728   -0.564352
H     -1.021310   -1.437494    1.006647
H     -1.872841    0.148286    0.988867
