26

C      2.465953    0.863925    0.756651
C      1.907530   -0.102219   -0.305342
C      2.809277   -1.344368   -0.383890
N      0.509525   -0.497297   -0.002975
C     -0.474161    0.519288   -0.436145
O     -0.568121    0.526064   -1.833728
C     -1.872782    0.271305    0.190745
C     -2.489314   -1.066926   -0.247550
C     -2.829115    1.425442   -0.142808
H      1.886447    1.808048    0.785443
H      2.439035    0.397088    1.764535
H      3.518205    1.128098    0.517185
H      1.960632    0.402039   -1.297025
H      3.857859   -1.049557   -0.603240
H      2.466338   -2.015597   -1.199798
H      2.784051   -1.904117    0.575680
H      0.412143   -0.678597    1.024079
H      0.289312   -1.390572   -0.502900
H     -0.142198    1.527710   -0.110536
H     -1.760809    0.248760    1.297592
H     -2.572075   -1.122591   -1.353835
H     -1.877056   -1.917911    0.115826
H     -3.504573   -1.181417    0.188883
H     -2.404110    2.390963    0.205407
H     -3.803439    1.276797    0.370023
H     -3.008553    1.485642   -1.237682
