17

C     -1.287963    1.306449    0.512626
C     -0.319897    0.115579    0.444559
C     -1.091433   -1.149861    0.027643
N      0.788943    0.416951   -0.488876
C      1.892637   -0.548065   -0.383504
O      2.976610   -0.109622   -1.147119
H     -1.722859    1.512230   -0.489001
H     -2.111795    1.095815    1.227761
H     -0.754239    2.214702    0.864683
H      0.081706   -0.040386    1.471824
H     -1.975546   -1.295788    0.684509
H     -1.439375   -1.068963   -1.024300
H     -0.454854   -2.051862    0.132485
H      1.175228    1.364755   -0.265213
H      0.437069    0.432594   -1.475344
H      2.224304   -0.651711    0.672727
H      1.581465   -1.542817   -0.765459
