 xtb: 6.6.0 (2ccbbd7)
          06142314043D

 23 21  0     0  0            999 V2000
    2.1866   -0.9270    1.1685 C   0  0  0  0  0  0  0  0  0  0  0  0
    1.8631   -0.7448   -0.3117 C   0  0  0  0  0  0  0  0  0  0  0  0
    1.7743    0.7348   -0.6728 C   0  0  0  0  0  0  0  0  0  0  0  0
    0.5754   -1.3809   -0.5916 N   0  0  0  0  0  0  0  0  0  0  0  0
   -1.9353    1.2597    0.2067 C   0  0  0  0  0  0  0  0  0  0  0  0
   -1.6805    0.0752    1.0898 C   0  0  0  0  0  0  0  0  0  0  0  0
   -2.8868    0.9906   -0.9349 C   0  0  0  0  0  0  0  0  0  0  0  0
   -1.4082    2.3324    0.3727 O   0  0  0  0  0  0  0  0  0  0  0  0
    3.1467   -0.4746    1.4008 H   0  0  0  0  0  0  0  0  0  0  0  0
    1.4190   -0.4543    1.7745 H   0  0  0  0  0  0  0  0  0  0  0  0
    2.2305   -1.9838    1.4243 H   0  0  0  0  0  0  0  0  0  0  0  0
    2.6766   -1.2025   -0.9061 H   0  0  0  0  0  0  0  0  0  0  0  0
    2.7135    1.2316   -0.4454 H   0  0  0  0  0  0  0  0  0  0  0  0
    0.9787    1.2152   -0.1104 H   0  0  0  0  0  0  0  0  0  0  0  0
    1.5682    0.8581   -1.7343 H   0  0  0  0  0  0  0  0  0  0  0  0
    0.3274   -1.2478   -1.5667 H   0  0  0  0  0  0  0  0  0  0  0  0
    0.6326   -2.3796   -0.4188 H   0  0  0  0  0  0  0  0  0  0  0  0
   -0.9095   -0.5321    0.5986 H   0  0  0  0  0  0  0  0  0  0  0  0
   -2.5732   -0.5315    1.2083 H   0  0  0  0  0  0  0  0  0  0  0  0
   -1.3077    0.3945    2.0594 H   0  0  0  0  0  0  0  0  0  0  0  0
   -3.9010    0.9429   -0.5418 H   0  0  0  0  0  0  0  0  0  0  0  0
   -2.6562    0.0353   -1.3984 H   0  0  0  0  0  0  0  0  0  0  0  0
   -2.8341    1.7887   -1.6705 H   0  0  0  0  0  0  0  0  0  0  0  0
  1  2  1  0  0  0  0
  2  3  1  0  0  0  0
  2  4  1  0  0  0  0
  5  6  1  0  0  0  0
  5  7  1  0  0  0  0
  5  8  2  0  0  0  0
  1  9  1  0  0  0  0
  1 10  1  0  0  0  0
  1 11  1  0  0  0  0
  2 12  1  0  0  0  0
  3 13  1  0  0  0  0
  3 14  1  0  0  0  0
  3 15  1  0  0  0  0
  4 16  1  0  0  0  0
  4 17  1  0  0  0  0
  6 18  1  0  0  0  0
  6 19  1  0  0  0  0
  6 20  1  0  0  0  0
  7 21  1  0  0  0  0
  7 22  1  0  0  0  0
  7 23  1  0  0  0  0
M  END
