26

C     -2.466173    1.330159    0.020045
C     -2.211430   -0.136405   -0.332590
C     -0.820114   -0.624428    0.143131
C     -0.781818   -2.163172    0.109182
N      0.284397   -0.047781   -0.682655
C      1.350260    0.621245    0.106947
C      2.118437   -0.385148    0.986279
C      2.346489    1.305943   -0.845832
O      0.789859    1.609325    0.925825
H     -1.744074    1.997853   -0.493070
H     -3.490371    1.614210   -0.301272
H     -2.387226    1.482305    1.117458
H     -3.007639   -0.739681    0.156823
H     -2.311345   -0.277864   -1.431032
H     -0.723933   -0.333909    1.213103
H      0.208560   -2.533397    0.446386
H     -0.968940   -2.534418   -0.921344
H     -1.554014   -2.584481    0.787882
H      0.724591   -0.788190   -1.279661
H     -0.099727    0.650299   -1.361128
H      1.462998   -0.819578    1.768422
H      2.961176    0.119729    1.505729
H      2.529776   -1.210276    0.366273
H      3.143311    1.824893   -0.270511
H      2.821034    0.559214   -1.518273
H      1.825920    2.063552   -1.469921
