16

C      1.842738   -0.325904    0.399906
C      0.643709    0.621619    0.353552
C     -0.498838    0.099031   -0.548062
N     -1.507250    1.140905   -0.755149
C     -1.174914   -1.144381    0.041496
H      2.196937   -0.556093   -0.627330
H      1.579435   -1.268995    0.921750
H      2.672238    0.156266    0.958936
H      0.998237    1.598692   -0.041251
H      0.270339    0.792078    1.387016
H     -0.078650   -0.176775   -1.541280
H     -1.826783    1.503947    0.173036
H     -1.067147    1.938681   -1.269227
H     -1.536575   -0.942177    1.072385
H     -0.470933   -2.001794    0.062646
H     -2.042540   -1.435100   -0.588423
