13

C      1.221915   -0.664036    0.270385
C     -0.094688    0.084137    0.492510
C     -1.219982   -0.535185   -0.339774
C      0.071597    1.534687    0.133350
O     -0.092881    2.403432    0.975009
H      1.109775   -1.729899    0.563033
H      1.527740   -0.615532   -0.797274
H      2.024858   -0.216089    0.894404
H     -0.367988   -0.001575    1.568176
H     -0.982665   -0.483066   -1.424553
H     -2.172980    0.005413   -0.154508
H     -1.364465   -1.599340   -0.055205
H      0.339763    1.817051   -0.880213
